DEBUT(PAR_LOT='NON')

mesh = LIRE_MAILLAGE(FORMAT='MED', UNITE=20)
mat = DEFI_MATERIAU(ELAS=_F(E=7.000000e+10, NU=0.330))
fieldmat = AFFE_MATERIAU(MAILLAGE=mesh, AFFE=_F(TOUT='OUI', MATER=(mat,)))
model = AFFE_MODELE(MAILLAGE=mesh, AFFE=_F(TOUT='OUI', PHENOMENE='MECANIQUE', MODELISATION='3D'))

bc_fixed = AFFE_CHAR_MECA(MODELE=model, DDL_IMPO=_F(GROUP_NO='FIX_NODES', DX=0.0, DY=0.0, DZ=0.0))
bc_bol = AFFE_CHAR_MECA(MODELE=model, FORCE_NODALE=(_F(GROUP_NO='N_78268_T_0', FX=-80.735336, FY=-35.534654, FZ=3.078465), _F(GROUP_NO='N_30308_T_0', FX=-257.468758, FY=-113.321672, FZ=9.817369), _F(GROUP_NO='N_25834_T_0', FX=-15.420432, FY=-6.787112, FZ=0.587986), _F(GROUP_NO='N_78267_T_0', FX=-192.153855, FY=-84.574129, FZ=7.326890), _F(GROUP_NO='N_78270_T_0', FX=-91.014716, FY=-40.058995, FZ=3.
bc_eol = AFFE_CHAR_MECA(MODELE=model, FORCE_NODALE=(_F(GROUP_NO='N_78268_T_0', FX=-0.068729, FY=-0.030250, FZ=0.002621), _F(GROUP_NO='N_30308_T_0', FX=-0.219181, FY=-0.096470, FZ=0.008357), _F(GROUP_NO='N_25834_T_0', FX=-0.013127, FY=-0.005778, FZ=0.000501), _F(GROUP_NO='N_78267_T_0', FX=-0.163579, FY=-0.071997, FZ=0.006237), _F(GROUP_NO='N_78270_T_0', FX=-0.077480, FY=-0.034102, FZ=0.002954), _F(

res_bol = MECA_STATIQUE(MODELE=model, CHAM_MATER=fieldmat, EXCIT=(_F(CHARGE=bc_fixed), _F(CHARGE=bc_bol)), SOLVEUR=_F(METHODE='GCPC', PRE_COND='LDLT_SP'))
res_bol = CALC_CHAMP(reuse=res_bol, RESULTAT=res_bol, CRITERES=('SIEQ_NOEU',))

res_eol = MECA_STATIQUE(MODELE=model, CHAM_MATER=fieldmat, EXCIT=(_F(CHARGE=bc_fixed), _F(CHARGE=bc_eol)), SOLVEUR=_F(METHODE='GCPC', PRE_COND='LDLT_SP'))
res_eol = CALC_CHAMP(reuse=res_eol, RESULTAT=res_eol, CRITERES=('SIEQ_NOEU',))


IMPR_RESU(FORMAT='MED', UNITE=80, RESU=(
    _F(RESULTAT=res_bol, NOM_CHAM='SIEQ_NOEU', NOM_CMP=('VMIS', 'TRESCA')),
    _F(RESULTAT=res_bol, NOM_CHAM='DEPL', NOM_CMP=('DX', 'DY', 'DZ')),
    _F(RESULTAT=res_eol, NOM_CHAM='SIEQ_NOEU', NOM_CMP=('VMIS', 'TRESCA')),
    _F(RESULTAT=res_eol, NOM_CHAM='DEPL', NOM_CMP=('DX', 'DY', 'DZ'))
))
FIN()