DEBUT(PAR_LOT='NON')

mesh = LIRE_MAILLAGE(FORMAT='MED', UNITE=20)
mat = DEFI_MATERIAU(ELAS=_F(E=7.170000e+10, NU=0.330))
fieldmat = AFFE_MATERIAU(MAILLAGE=mesh, AFFE=_F(TOUT='OUI', MATER=(mat,)))
model = AFFE_MODELE(MAILLAGE=mesh, AFFE=_F(TOUT='OUI', PHENOMENE='MECANIQUE', MODELISATION='3D'))

bc_fixed = AFFE_CHAR_MECA(MODELE=model, DDL_IMPO=_F(GROUP_NO='FIX_NODES', DX=0.0, DY=0.0, DZ=0.0))
bc_bol = AFFE_CHAR_MECA(MODELE=model, FORCE_NODALE=(_F(GROUP_NO='N_44973_T_0', FX=-17.431490, FY=-7.998084, FZ=0.669330), _F(GROUP_NO='N_116756_T_0', FX=-5.375671, FY=-2.466517, FZ=0.206414), _F(GROUP_NO='N_116755_T_0', FX=-12.948356, FY=-5.941089, FZ=0.497188), _F(GROUP_NO='N_39551_T_0', FX=-0.892537, FY=-0.409522, FZ=0.034271), _F(GROUP_NO='N_116719_T_0', FX=-17.403092, FY=-7.985054, FZ=0.668240
bc_eol = AFFE_CHAR_MECA(MODELE=model, FORCE_NODALE=(_F(GROUP_NO='N_44973_T_0', FX=-0.005876, FY=-0.002696, FZ=0.000226), _F(GROUP_NO='N_116756_T_0', FX=-0.001812, FY=-0.000832, FZ=0.000070), _F(GROUP_NO='N_116755_T_0', FX=-0.004365, FY=-0.002003, FZ=0.000168), _F(GROUP_NO='N_39551_T_0', FX=-0.000301, FY=-0.000138, FZ=0.000012), _F(GROUP_NO='N_116719_T_0', FX=-0.005867, FY=-0.002692, FZ=0.000225), 

res_bol = MECA_STATIQUE(MODELE=model, CHAM_MATER=fieldmat, EXCIT=(_F(CHARGE=bc_fixed), _F(CHARGE=bc_bol)))
res_bol = CALC_CHAMP(reuse=res_bol, RESULTAT=res_bol, CRITERES=('SIEQ_NOEU',))

res_eol = MECA_STATIQUE(MODELE=model, CHAM_MATER=fieldmat, EXCIT=(_F(CHARGE=bc_fixed), _F(CHARGE=bc_eol)))
res_eol = CALC_CHAMP(reuse=res_eol, RESULTAT=res_eol, CRITERES=('SIEQ_NOEU',))


IMPR_RESU(FORMAT='MED', UNITE=80, RESU=(
    _F(RESULTAT=res_bol, NOM_CHAM='SIEQ_NOEU', NOM_CMP=('VMIS', 'TRESCA')),
    _F(RESULTAT=res_bol, NOM_CHAM='DEPL', NOM_CMP=('DX', 'DY', 'DZ')),
    _F(RESULTAT=res_eol, NOM_CHAM='SIEQ_NOEU', NOM_CMP=('VMIS', 'TRESCA')),
    _F(RESULTAT=res_eol, NOM_CHAM='DEPL', NOM_CMP=('DX', 'DY', 'DZ'))
))
FIN()