DEBUT(PAR_LOT='NON')

mesh = LIRE_MAILLAGE(FORMAT='MED', UNITE=20)
mat = DEFI_MATERIAU(ELAS=_F(E=7.170000e+10, NU=0.330))
fieldmat = AFFE_MATERIAU(MAILLAGE=mesh, AFFE=_F(TOUT='OUI', MATER=(mat,)))
model = AFFE_MODELE(MAILLAGE=mesh, AFFE=_F(TOUT='OUI', PHENOMENE='MECANIQUE', MODELISATION='3D'))

bc_fixed = AFFE_CHAR_MECA(MODELE=model, DDL_IMPO=_F(GROUP_NO='FIX_NODES', DX=0.0, DY=0.0, DZ=0.0))
bc_bol = AFFE_CHAR_MECA(MODELE=model, FORCE_NODALE=(_F(GROUP_NO='N_30103_T_0', FX=-1.045461, FY=-0.479689, FZ=0.040143), _F(GROUP_NO='N_35727_T_0', FX=-20.418144, FY=-9.368449, FZ=0.784011), _F(GROUP_NO='N_90694_T_0', FX=-6.296721, FY=-2.889122, FZ=0.241780), _F(GROUP_NO='N_90693_T_0', FX=-15.166884, FY=-6.959016, FZ=0.582375), _F(GROUP_NO='N_90658_T_0', FX=-20.976475, FY=-9.624628, FZ=0.805450), 
bc_eol = AFFE_CHAR_MECA(MODELE=model, FORCE_NODALE=(_F(GROUP_NO='N_30103_T_0', FX=-0.000352, FY=-0.000162, FZ=0.000014), _F(GROUP_NO='N_35727_T_0', FX=-0.006883, FY=-0.003158, FZ=0.000264), _F(GROUP_NO='N_90694_T_0', FX=-0.002123, FY=-0.000974, FZ=0.000082), _F(GROUP_NO='N_90693_T_0', FX=-0.005113, FY=-0.002346, FZ=0.000196), _F(GROUP_NO='N_90658_T_0', FX=-0.007072, FY=-0.003245, FZ=0.000272), _F(

res_bol = MECA_STATIQUE(MODELE=model, CHAM_MATER=fieldmat, EXCIT=(_F(CHARGE=bc_fixed), _F(CHARGE=bc_bol)))
res_bol = CALC_CHAMP(reuse=res_bol, RESULTAT=res_bol, CRITERES=('SIEQ_NOEU',))

res_eol = MECA_STATIQUE(MODELE=model, CHAM_MATER=fieldmat, EXCIT=(_F(CHARGE=bc_fixed), _F(CHARGE=bc_eol)))
res_eol = CALC_CHAMP(reuse=res_eol, RESULTAT=res_eol, CRITERES=('SIEQ_NOEU',))


IMPR_RESU(FORMAT='MED', UNITE=80, RESU=(
    _F(RESULTAT=res_bol, NOM_CHAM='SIEQ_NOEU', NOM_CMP=('VMIS', 'TRESCA')),
    _F(RESULTAT=res_bol, NOM_CHAM='DEPL', NOM_CMP=('DX', 'DY', 'DZ')),
    _F(RESULTAT=res_eol, NOM_CHAM='SIEQ_NOEU', NOM_CMP=('VMIS', 'TRESCA')),
    _F(RESULTAT=res_eol, NOM_CHAM='DEPL', NOM_CMP=('DX', 'DY', 'DZ'))
))
FIN()