DEBUT(PAR_LOT='NON')

mesh = LIRE_MAILLAGE(FORMAT='MED', UNITE=20)
mat = DEFI_MATERIAU(ELAS=_F(E=7.000000e+10, NU=0.330))
fieldmat = AFFE_MATERIAU(MAILLAGE=mesh, AFFE=_F(TOUT='OUI', MATER=(mat,)))
model = AFFE_MODELE(MAILLAGE=mesh, AFFE=_F(TOUT='OUI', PHENOMENE='MECANIQUE', MODELISATION='3D'))

bc_fixed = AFFE_CHAR_MECA(MODELE=model, DDL_IMPO=_F(GROUP_NO='FIX_NODES', DX=0.0, DY=0.0, DZ=0.0))
bc_bol = AFFE_CHAR_MECA(MODELE=model, FORCE_NODALE=(_F(GROUP_NO='N_31248_T_0', FX=-15.862823, FY=-6.981824, FZ=0.604855), _F(GROUP_NO='N_35610_T_0', FX=-264.855179, FY=-116.572713, FZ=10.099016), _F(GROUP_NO='N_93922_T_0', FX=-197.666482, FY=-87.000444, FZ=7.537089), _F(GROUP_NO='N_93923_T_0', FX=-83.051520, FY=-36.554094, FZ=3.166782), _F(GROUP_NO='N_93924_T_0', FX=-187.092200, FY=-82.346305, FZ=
bc_eol = AFFE_CHAR_MECA(MODELE=model, FORCE_NODALE=(_F(GROUP_NO='N_31248_T_0', FX=-0.013504, FY=-0.005944, FZ=0.000515), _F(GROUP_NO='N_35610_T_0', FX=-0.225469, FY=-0.099237, FZ=0.008597), _F(GROUP_NO='N_93922_T_0', FX=-0.168272, FY=-0.074063, FZ=0.006416), _F(GROUP_NO='N_93923_T_0', FX=-0.070701, FY=-0.031118, FZ=0.002696), _F(GROUP_NO='N_93924_T_0', FX=-0.159270, FY=-0.070101, FZ=0.006073), _F(

res_bol = MECA_STATIQUE(MODELE=model, CHAM_MATER=fieldmat, EXCIT=(_F(CHARGE=bc_fixed), _F(CHARGE=bc_bol)), SOLVEUR=_F(METHODE='GCPC', PRE_COND='LDLT_SP'))
res_bol = CALC_CHAMP(reuse=res_bol, RESULTAT=res_bol, CRITERES=('SIEQ_NOEU',))

res_eol = MECA_STATIQUE(MODELE=model, CHAM_MATER=fieldmat, EXCIT=(_F(CHARGE=bc_fixed), _F(CHARGE=bc_eol)), SOLVEUR=_F(METHODE='GCPC', PRE_COND='LDLT_SP'))
res_eol = CALC_CHAMP(reuse=res_eol, RESULTAT=res_eol, CRITERES=('SIEQ_NOEU',))


IMPR_RESU(FORMAT='MED', UNITE=80, RESU=(
    _F(RESULTAT=res_bol, NOM_CHAM='SIEQ_NOEU', NOM_CMP=('VMIS', 'TRESCA')),
    _F(RESULTAT=res_bol, NOM_CHAM='DEPL', NOM_CMP=('DX', 'DY', 'DZ')),
    _F(RESULTAT=res_eol, NOM_CHAM='SIEQ_NOEU', NOM_CMP=('VMIS', 'TRESCA')),
    _F(RESULTAT=res_eol, NOM_CHAM='DEPL', NOM_CMP=('DX', 'DY', 'DZ'))
))
FIN()