DEBUT(PAR_LOT='NON')

mesh = LIRE_MAILLAGE(FORMAT='MED', UNITE=20)
mat = DEFI_MATERIAU(ELAS=_F(E=7.000000e+10, NU=0.330))
fieldmat = AFFE_MATERIAU(MAILLAGE=mesh, AFFE=_F(TOUT='OUI', MATER=(mat,)))
model = AFFE_MODELE(MAILLAGE=mesh, AFFE=_F(TOUT='OUI', PHENOMENE='MECANIQUE', MODELISATION='3D'))

bc_fixed = AFFE_CHAR_MECA(MODELE=model, DDL_IMPO=_F(GROUP_NO='FIX_NODES', DX=0.0, DY=0.0, DZ=0.0))
bc_bol = AFFE_CHAR_MECA(MODELE=model, FORCE_NODALE=(_F(GROUP_NO='N_21959_T_0', FX=-15.847070, FY=-6.974891, FZ=0.604254), _F(GROUP_NO='N_67736_T_0', FX=-197.470184, FY=-86.914046, FZ=7.529604), _F(GROUP_NO='N_67737_T_0', FX=-82.969044, FY=-36.517793, FZ=3.163637), _F(GROUP_NO='N_26216_T_0', FX=-264.592158, FY=-116.456948, FZ=10.088987), _F(GROUP_NO='N_67739_T_0', FX=-93.532825, FY=-41.167310, FZ=3
bc_eol = AFFE_CHAR_MECA(MODELE=model, FORCE_NODALE=(_F(GROUP_NO='N_21959_T_0', FX=-0.013490, FY=-0.005938, FZ=0.000514), _F(GROUP_NO='N_67736_T_0', FX=-0.168105, FY=-0.073989, FZ=0.006410), _F(GROUP_NO='N_67737_T_0', FX=-0.070631, FY=-0.031087, FZ=0.002693), _F(GROUP_NO='N_26216_T_0', FX=-0.225245, FY=-0.099139, FZ=0.008589), _F(GROUP_NO='N_67739_T_0', FX=-0.079624, FY=-0.035045, FZ=0.003036), _F(

res_bol = MECA_STATIQUE(MODELE=model, CHAM_MATER=fieldmat, EXCIT=(_F(CHARGE=bc_fixed), _F(CHARGE=bc_bol)), SOLVEUR=_F(METHODE='GCPC', PRE_COND='LDLT_SP'))
res_bol = CALC_CHAMP(reuse=res_bol, RESULTAT=res_bol, CRITERES=('SIEQ_NOEU',))

res_eol = MECA_STATIQUE(MODELE=model, CHAM_MATER=fieldmat, EXCIT=(_F(CHARGE=bc_fixed), _F(CHARGE=bc_eol)), SOLVEUR=_F(METHODE='GCPC', PRE_COND='LDLT_SP'))
res_eol = CALC_CHAMP(reuse=res_eol, RESULTAT=res_eol, CRITERES=('SIEQ_NOEU',))


IMPR_RESU(FORMAT='MED', UNITE=80, RESU=(
    _F(RESULTAT=res_bol, NOM_CHAM='SIEQ_NOEU', NOM_CMP=('VMIS', 'TRESCA')),
    _F(RESULTAT=res_bol, NOM_CHAM='DEPL', NOM_CMP=('DX', 'DY', 'DZ')),
    _F(RESULTAT=res_eol, NOM_CHAM='SIEQ_NOEU', NOM_CMP=('VMIS', 'TRESCA')),
    _F(RESULTAT=res_eol, NOM_CHAM='DEPL', NOM_CMP=('DX', 'DY', 'DZ'))
))
FIN()